[TITLE]
;;Project Title/Notes

[OPTIONS]
;;Option            	Value
FLOW_UNITS          	CFS
INFILTRATION        	HORTON
FLOW_ROUTING        	KINWAVE
LINK_OFFSETS        	DEPTH
MIN_SLOPE           	0
ALLOW_PONDING       	NO
SKIP_STEADY_STATE   	NO

START_DATE          	10/02/2019
START_TIME          	00:00:00
REPORT_START_DATE   	10/02/2019
REPORT_START_TIME   	00:00:00
END_DATE            	10/02/2019
END_TIME            	06:00:00
SWEEP_START         	1/1
SWEEP_END           	12/31
DRY_DAYS            	0
REPORT_STEP         	00:15:00
WET_STEP            	00:05:00
DRY_STEP            	01:00:00
ROUTING_STEP        	0:00:30 
RULE_STEP           	00:00:00

INERTIAL_DAMPING    	PARTIAL
NORMAL_FLOW_LIMITED 	BOTH
FORCE_MAIN_EQUATION 	H-W
VARIABLE_STEP       	0.75
LENGTHENING_STEP    	0
MIN_SURFAREA        	0
MAX_TRIALS          	0
HEAD_TOLERANCE      	0
SYS_FLOW_TOL        	5
LAT_FLOW_TOL        	5
MINIMUM_STEP        	0.5
THREADS             	1

[EVAPORATION]
;;Data Source   	Parameters
;;--------------	----------------
CONSTANT        	0.0
DRY_ONLY        	NO

[RAINGAGES]
;;Name          	Format   	Interval	SCF     	Source    
;;--------------	---------	------	------	----------
1               	INTENSITY	0:15    	1.0     	TIMESERIES	TS1             

[SUBCATCHMENTS]
;;Name          	Rain Gage       	Outlet          	Area    	%Imperv 	Width   	%Slope  	CurbLen 	SnowPack        
;;--------------	----------------	----------------	--------	--------	--------	--------	--------	----------------
S1              	1               	S2              	5       	100     	500     	0.5     	0       	                
S2              	1               	1               	5       	0       	500     	0.5     	0       	                

[SUBAREAS]
;;Subcatchment  	N-Imperv  	N-Perv    	S-Imperv  	S-Perv    	PctZero   	RouteTo   	PctRouted 
;;--------------	----------	----------	----------	----------	----------	----------	----------
S1              	0.01      	0.1       	0.05      	0.05      	25        	OUTLET    
S2              	0.01      	0.1       	0.05      	0.05      	25        	OUTLET    

[INFILTRATION]
;;Subcatchment  	MaxRate   	MinRate   	Decay     	DryTime   	MaxInfil  
;;--------------	----------	----------	----------	----------	----------
S1              	3.0       	0.5       	4         	7         	0         
S2              	3.0       	0.5       	4         	7         	0         

[OUTFALLS]
;;Name          	Elevation 	Type      	Stage Data      	Gated   	Route To        
;;--------------	----------	----------	----------------	--------	----------------
1               	0         	FREE      	                	NO      	                

[TIMESERIES]
;;Name          	Date      	Time      	Value     
;;--------------	----------	----------	----------
TS1             	          	0:00      	0.0175    
TS1             	          	0:15      	0.0175    
TS1             	          	0:30      	0.0175    
TS1             	          	0:45      	0.0175    
TS1             	          	1:00      	0.0175    
TS1             	          	1:15      	0.0175    
TS1             	          	1:30      	0.0175    
TS1             	          	1:45      	0.0175    
TS1             	          	2:00      	0.0205    
TS1             	          	2:15      	0.0205    
TS1             	          	2:30      	0.0205    
TS1             	          	2:45      	0.0205    
TS1             	          	3:00      	0.0205    
TS1             	          	3:15      	0.0205    
TS1             	          	3:30      	0.0205    
TS1             	          	3:45      	0.0205    
TS1             	          	4:00      	0.0245    
TS1             	          	4:15      	0.0245    
TS1             	          	4:30      	0.0245    
TS1             	          	4:45      	0.0245    
TS1             	          	5:00      	0.0245    
TS1             	          	5:15      	0.0245    
TS1             	          	5:30      	0.0245    
TS1             	          	5:45      	0.0245    
TS1             	          	6:00      	0.031     
TS1             	          	6:15      	0.031     
TS1             	          	6:30      	0.031     
TS1             	          	6:45      	0.031     
TS1             	          	7:00      	0.038     
TS1             	          	7:15      	0.038     
TS1             	          	7:30      	0.038     
TS1             	          	7:45      	0.038     
TS1             	          	8:00      	0.05      
TS1             	          	8:15      	0.05      
TS1             	          	8:30      	0.07      
TS1             	          	8:45      	0.07      
TS1             	          	9:00      	0.098     
TS1             	          	9:15      	0.098     
TS1             	          	9:30      	0.236     
TS1             	          	9:45      	0.612     
TS1             	          	10:00     	0.136     
TS1             	          	10:15     	0.136     
TS1             	          	10:30     	0.082     
TS1             	          	10:45     	0.082     
TS1             	          	11:00     	0.06      
TS1             	          	11:15     	0.06      
TS1             	          	11:30     	0.06      
TS1             	          	11:45     	0.052     
TS1             	          	12:00     	0.048     
TS1             	          	12:15     	0.048     
TS1             	          	12:30     	0.042     
TS1             	          	12:45     	0.042     
TS1             	          	13:00     	0.042     
TS1             	          	13:15     	0.042     
TS1             	          	13:30     	0.038     
TS1             	          	13:45     	0.038     
TS1             	          	14:00     	0.0315    
TS1             	          	14:15     	0.0315    
TS1             	          	14:30     	0.0315    
TS1             	          	14:45     	0.0315    
TS1             	          	15:00     	0.0315    
TS1             	          	15:15     	0.0315    
TS1             	          	15:30     	0.0315    
TS1             	          	15:45     	0.0315    
TS1             	          	16:00     	0.024     
TS1             	          	16:15     	0.024     
TS1             	          	16:30     	0.024     
TS1             	          	16:45     	0.024     
TS1             	          	17:00     	0.024     
TS1             	          	17:15     	0.024     
TS1             	          	17:30     	0.024     
TS1             	          	17:45     	0.024     
TS1             	          	18:00     	0.024     
TS1             	          	18:15     	0.024     
TS1             	          	18:30     	0.024     
TS1             	          	18:45     	0.024     
TS1             	          	19:00     	0.024     
TS1             	          	19:15     	0.024     
TS1             	          	19:30     	0.024     
TS1             	          	19:45     	0.024     
TS1             	          	20:00     	0.0185    
TS1             	          	20:15     	0.0185    
TS1             	          	20:30     	0.0185    
TS1             	          	20:45     	0.0185    
TS1             	          	21:00     	0.0185    
TS1             	          	21:15     	0.0185    
TS1             	          	21:30     	0.0185    
TS1             	          	21:45     	0.0185    
TS1             	          	22:00     	0.0185    
TS1             	          	22:15     	0.0185    
TS1             	          	22:30     	0.0185    
TS1             	          	22:45     	0.0185    
TS1             	          	23:00     	0.0185    
TS1             	          	23:15     	0.0185    
TS1             	          	23:30     	0.0185    
TS1             	          	23:45     	0.0185    
TS1             	          	24:00:00  	0         
TS1             	          	24:15:00  	0         
TS1             	          	24:30:00  	0         
TS1             	          	24:45:00  	0         
TS1             	          	25:00:00  	0         

[REPORT]
;;Reporting Options
SUBCATCHMENTS	ALL
NODES	ALL
LINKS	ALL

[TAGS]

[MAP]
DIMENSIONS	0.000	0.000	10000.000	10000.000
Units     	None

[COORDINATES]
;;Node          	X-Coord           	Y-Coord           
;;--------------	------------------	------------------
1               	7448.454          	3762.887          

[VERTICES]
;;Link          	X-Coord           	Y-Coord           
;;--------------	------------------	------------------

[Polygons]
;;Subcatchment  	X-Coord           	Y-Coord           
;;--------------	------------------	------------------
S1              	-12551.546        	2731.959          
S1              	-6675.258         	3659.794          
S1              	-7036.082         	7731.959          
S1              	-12551.546        	7061.856          
S2              	4046.392          	7061.856          
S2              	3427.835          	3350.515          
S2              	-1726.804         	3917.526          
S2              	-2603.093         	8247.423          

[SYMBOLS]
;;Gage          	X-Coord           	Y-Coord           
;;--------------	------------------	------------------
1               	-15180.412        	7216.495          

